279
Hi there, i am using gmx2qmmm/serenity
C     75.880000    72.950000    25.970000
H     75.820000    71.990000    26.490000
H     74.980000    72.960000    25.360000
C     75.750000    74.100000    26.950000
C     76.870000    74.380000    27.770000
H     77.850000    73.940000    27.850000
C     76.710000    75.380000    28.750000
H     77.560000    75.570000    29.390000
C     75.470000    76.090000    28.910000
H     75.370000    76.800000    29.720000
C     74.450000    75.840000    28.010000
H     73.490000    76.270000    28.280000
C     74.570000    74.880000    27.000000
H     73.740000    74.670000    26.340000
C     81.360000    70.650000    24.980000
H     81.860000    69.710000    25.240000
H     81.650000    71.410000    25.700000
O     81.600000    71.180000    23.720000
H     81.630000    72.120000    23.930000
C     78.050000    66.160000    26.730000
H     78.990000    65.720000    26.390000
H     77.580000    66.350000    25.770000
C     77.340000    65.090000    27.620000
C     76.030000    64.740000    27.210000
H     75.480000    65.230000    26.420000
C     75.300000    63.730000    27.910000
H     74.260000    63.500000    27.700000
C     75.900000    63.090000    29.040000
H     75.290000    62.430000    29.630000
C     77.130000    63.580000    29.490000
H     77.510000    63.160000    30.410000
C     77.900000    64.580000    28.810000
H     78.860000    64.890000    29.180000
C     81.620000    72.490000    29.150000
H     80.820000    72.390000    28.430000
C     81.570000    73.980000    29.650000
H     82.560000    74.100000    30.100000
H     81.500000    74.560000    28.730000
H     80.740000    74.140000    30.340000
O     82.860000    72.230000    28.530000
H     82.950000    72.780000    27.750000
C     76.570000    70.860000    29.510000
H     76.770000    69.820000    29.280000
H     76.800000    71.350000    28.560000
C     75.080000    70.990000    29.880000
H     74.930000    70.550000    30.870000
C     74.600000    72.360000    29.980000
H     73.520000    72.350000    30.150000
H     75.030000    72.930000    30.810000
H     74.710000    72.910000    29.050000
C     74.240000    70.310000    28.810000
H     73.200000    70.130000    29.080000
H     74.240000    70.880000    27.880000
H     74.670000    69.330000    28.620000
C     78.410000    67.140000    33.230000
H     79.400000    67.090000    32.790000
H     77.810000    66.720000    32.420000
C     78.480000    66.220000    34.450000
H     79.320000    66.640000    35.000000
C     77.330000    66.120000    35.370000
H     76.790000    65.190000    35.290000
H     77.710000    66.310000    36.370000
H     76.550000    66.860000    35.200000
C     79.020000    64.870000    34.080000
H     79.320000    64.410000    35.020000
H     78.180000    64.300000    33.690000
H     79.840000    64.970000    33.370000
C     78.980000    74.580000    33.870000
H     78.380000    75.440000    34.160000
C     80.310000    74.910000    33.200000
H     80.070000    75.500000    32.320000
H     80.760000    75.680000    33.820000
H     81.100000    74.160000    33.060000
O     78.090000    73.860000    33.000000
H     78.710000    73.460000    32.380000
C     74.790000    71.520000    35.940000
H     73.970000    71.190000    36.580000
H     75.310000    70.610000    35.640000
C     74.190000    72.310000    34.800000
H     74.960000    72.680000    34.130000
H     73.700000    73.220000    35.160000
C     73.090000    71.550000    34.120000
O     71.910000    71.730000    34.450000
N     73.390000    70.710000    33.160000
H     74.350000    70.410000    33.010000
H     72.630000    70.300000    32.640000
C     79.220000    69.790000    38.870000
H     80.050000    70.310000    38.380000
H     78.710000    69.140000    38.160000
C     79.910000    68.910000    39.970000
H     79.170000    68.600000    40.710000
C     80.480000    67.730000    39.200000
H     79.770000    67.140000    38.630000
H     81.280000    68.060000    38.540000
H     80.930000    67.030000    39.910000
C     81.100000    69.550000    40.750000
H     81.660000    68.770000    41.270000
H     81.720000    70.130000    40.070000
H     80.710000    70.190000    41.550000
C     81.150000    74.650000    39.560000
H     81.650000    75.430000    40.130000
C     82.310000    73.610000    39.490000
H     82.540000    73.250000    40.490000
H     81.980000    72.750000    38.900000
H     83.210000    74.140000    39.190000
C     80.870000    75.240000    38.210000
H     80.080000    75.950000    38.460000
H     80.470000    74.500000    37.500000
C     82.070000    75.910000    37.550000
H     81.690000    76.360000    36.630000
H     82.480000    76.690000    38.200000
H     82.860000    75.260000    37.200000
C     75.700000    76.350000    39.780000
H     74.730000    76.560000    40.220000
H     75.410000    75.460000    39.210000
C     76.200000    77.500000    38.910000
H     77.190000    77.290000    38.510000
C     75.170000    77.360000    37.780000
H     74.160000    77.360000    38.200000
H     75.370000    78.140000    37.050000
H     75.310000    76.420000    37.240000
C     76.130000    78.930000    39.540000
H     76.790000    78.920000    40.410000
H     76.460000    79.670000    38.820000
H     75.160000    79.160000    39.970000
C     76.890000    75.670000    48.420000
H     77.950000    75.760000    48.190000
H     76.670000    75.920000    49.460000
C     76.160000    76.710000    47.620000
C     76.600000    77.420000    46.530000
H     77.580000    77.300000    46.090000
N     75.630000    78.260000    46.090000
H     75.850000    78.930000    45.370000
C     74.440000    78.140000    46.740000
C     73.120000    78.650000    46.480000
H     72.960000    79.310000    45.640000
C     72.070000    78.260000    47.310000
H     71.040000    78.480000    47.080000
C     72.400000    77.560000    48.500000
H     71.550000    77.270000    49.090000
C     73.720000    77.050000    48.760000
H     73.930000    76.360000    49.570000
C     74.750000    77.260000    47.840000
C     71.980000    73.580000    46.280000
H     72.270000    72.650000    45.800000
C     70.400000    73.800000    46.300000
H     70.090000    73.670000    45.260000
H     69.910000    73.010000    46.870000
H     70.020000    74.770000    46.600000
C     72.610000    74.780000    45.410000
H     72.280000    75.700000    45.900000
H     73.690000    74.690000    45.390000
H     72.230000    74.720000    44.390000
C     76.400000    70.920000    50.420000
H     77.100000    71.000000    51.240000
H     76.090000    71.920000    50.110000
O     76.910000    70.270000    49.230000
H     77.510000    70.870000    48.780000
C     75.890000    69.710000    56.750000
H     75.370000    70.330000    56.030000
C     75.880000    70.280000    58.170000
H     74.850000    70.330000    58.540000
H     76.470000    69.670000    58.850000
H     76.370000    71.260000    58.180000
C     77.310000    69.900000    56.220000
H     78.040000    69.250000    56.700000
H     77.350000    69.730000    55.140000
H     77.680000    70.900000    56.440000
C     83.510000    82.160000    44.930000
H     84.300000    82.660000    45.500000
H     83.990000    82.030000    43.960000
H     82.700000    82.890000    44.830000
C     82.960000    80.830000    45.650000
C     82.050000    81.200000    46.840000
H     81.770000    80.290000    47.370000
H     82.620000    81.840000    47.520000
H     81.160000    81.690000    46.450000
C     84.130000    80.050000    46.270000
H     83.810000    79.450000    47.130000
H     84.760000    80.870000    46.650000
C     84.970000    79.310000    45.330000
H     85.860000    78.760000    45.670000
H     85.500000    80.060000    44.710000
C     84.160000    78.330000    44.520000
H     83.890000    77.500000    45.200000
H     84.740000    78.050000    43.630000
C     82.720000    78.860000    44.110000
C     82.160000    77.950000    43.000000
H     81.860000    76.960000    43.330000
H     81.320000    78.450000    42.530000
H     82.880000    77.890000    42.190000
C     82.160000    79.950000    44.680000
C     80.780000    80.470000    44.310000
H     80.780000    81.550000    44.140000
C     79.630000    79.760000    44.230000
H     79.560000    78.670000    44.180000
C     78.390000    80.530000    43.860000
C     78.330000    82.000000    43.740000
H     78.570000    82.540000    44.650000
H     79.040000    82.350000    42.990000
H     77.390000    82.390000    43.380000
C     77.310000    79.640000    43.580000
H     77.590000    78.600000    43.750000
C     75.890000    79.950000    43.300000
H     75.710000    80.990000    43.020000
C     74.900000    79.020000    43.200000
H     74.970000    77.970000    43.470000
C     73.520000    79.270000    42.680000
C     73.080000    80.600000    42.200000
H     72.130000    80.730000    41.680000
H     73.080000    81.280000    43.050000
H     73.820000    81.020000    41.530000
C     72.630000    78.200000    42.640000
H     73.150000    77.310000    42.990000
C     71.160000    78.220000    42.290000
H     70.720000    79.210000    42.130000
C     70.350000    77.120000    42.200000
H     70.760000    76.110000    42.300000
C     68.910000    77.190000    41.750000
H     68.510000    78.150000    41.430000
C     68.010000    76.150000    41.650000
C     68.470000    74.680000    41.870000
H     67.910000    74.220000    42.690000
H     68.250000    74.020000    41.020000
H     69.490000    74.630000    42.260000
C     66.590000    76.360000    41.360000
H     66.460000    77.360000    40.930000
C     65.610000    75.470000    41.480000
H     65.800000    74.470000    41.880000
C     64.190000    75.830000    41.010000
H     63.930000    76.620000    40.300000
C     63.080000    75.440000    41.660000
C     63.050000    74.450000    42.770000
H     63.940000    73.820000    42.770000
H     62.910000    74.970000    43.720000
H     62.190000    73.780000    42.710000
C     61.810000    75.890000    41.040000
H     61.910000    76.130000    39.980000
C     60.620000    75.830000    41.660000
H     60.550000    75.400000    42.660000
C     59.240000    76.130000    41.150000
C     58.410000    74.890000    40.700000
C     59.330000    73.800000    40.100000
H     60.160000    73.500000    40.750000
H     58.750000    72.980000    39.690000
H     59.790000    74.310000    39.260000
C     57.800000    74.300000    42.000000
H     56.830000    73.840000    41.810000
H     58.400000    73.530000    42.480000
H     57.550000    75.030000    42.770000
C     57.350000    75.310000    39.710000
H     57.900000    75.690000    38.830000
H     56.750000    74.430000    39.450000
C     56.400000    76.490000    40.260000
H     55.900000    76.220000    41.200000
H     55.710000    76.810000    39.470000
C     57.310000    77.740000    40.510000
H     57.490000    78.170000    39.510000
H     56.830000    78.550000    41.070000
C     58.740000    77.370000    41.060000
C     59.550000    78.630000    41.330000
H     59.230000    79.110000    42.250000
H     60.620000    78.430000    41.370000
H     59.360000    79.360000    40.540000
H     76.664199    73.056936    25.242834
H     80.247863    70.493160    25.029904
H     78.342292    67.165200    27.186261
H     81.448902    71.769963    29.962715
H     77.225875    71.138034    30.344103
H     78.074933    68.159459    33.408227
H     79.086936    74.016803    34.796781
H     75.502908    72.133101    36.467552
H     78.450059    70.545683    39.155163
H     80.251736    74.207997    40.051907
H     76.377263    76.036320    40.549941
H     76.583450    74.636283    48.248902
H     72.393487    73.715453    47.292330
H     75.480349    70.399577    50.747938
H     75.547804    68.626380    56.657322
