14
Hi there, i am using gmx2qmmm/serenity
C     81.150000    74.650000    39.560000
H     81.650000    75.430000    40.130000
C     82.310000    73.610000    39.490000
H     82.540000    73.250000    40.490000
H     81.980000    72.750000    38.900000
H     83.210000    74.140000    39.190000
C     80.870000    75.240000    38.210000
H     80.080000    75.950000    38.460000
H     80.470000    74.500000    37.500000
C     82.070000    75.910000    37.550000
H     81.690000    76.360000    36.630000
H     82.480000    76.690000    38.200000
H     82.860000    75.260000    37.200000
H     80.251736    74.207997    40.051907
