14
Hi there, i am using gmx2qmmm/serenity
C     75.700000    76.350000    39.780000
H     74.730000    76.560000    40.220000
H     75.410000    75.460000    39.210000
C     76.200000    77.500000    38.910000
H     77.190000    77.290000    38.510000
C     75.170000    77.360000    37.780000
H     74.160000    77.360000    38.200000
H     75.370000    78.140000    37.050000
H     75.310000    76.420000    37.240000
C     76.130000    78.930000    39.540000
H     76.790000    78.920000    40.410000
H     76.460000    79.670000    38.820000
H     75.160000    79.160000    39.970000
H     76.377263    76.036320    40.549941
