19
Hi there, i am using gmx2qmmm/serenity
C     76.890000    75.670000    48.420000
H     77.950000    75.760000    48.190000
H     76.670000    75.920000    49.460000
C     76.160000    76.710000    47.620000
C     76.600000    77.420000    46.530000
H     77.580000    77.300000    46.090000
N     75.630000    78.260000    46.090000
H     75.850000    78.930000    45.370000
C     74.440000    78.140000    46.740000
C     73.120000    78.650000    46.480000
H     72.960000    79.310000    45.640000
C     72.070000    78.260000    47.310000
H     71.040000    78.480000    47.080000
C     72.400000    77.560000    48.500000
H     71.550000    77.270000    49.090000
C     73.720000    77.050000    48.760000
H     73.930000    76.360000    49.570000
C     74.750000    77.260000    47.840000
H     76.583450    74.636283    48.248902
