11
Hi there, i am using gmx2qmmm/serenity
C     71.980000    73.580000    46.280000
H     72.270000    72.650000    45.800000
C     70.400000    73.800000    46.300000
H     70.090000    73.670000    45.260000
H     69.910000    73.010000    46.870000
H     70.020000    74.770000    46.600000
C     72.610000    74.780000    45.410000
H     72.280000    75.700000    45.900000
H     73.690000    74.690000    45.390000
H     72.230000    74.720000    44.390000
H     72.393487    73.715453    47.292330
