96
Hi there, i am using gmx2qmmm/serenity
C     83.510000    82.160000    44.930000
H     84.300000    82.660000    45.500000
H     83.990000    82.030000    43.960000
H     82.700000    82.890000    44.830000
C     82.960000    80.830000    45.650000
C     82.050000    81.200000    46.840000
H     81.770000    80.290000    47.370000
H     82.620000    81.840000    47.520000
H     81.160000    81.690000    46.450000
C     84.130000    80.050000    46.270000
H     83.810000    79.450000    47.130000
H     84.760000    80.870000    46.650000
C     84.970000    79.310000    45.330000
H     85.860000    78.760000    45.670000
H     85.500000    80.060000    44.710000
C     84.160000    78.330000    44.520000
H     83.890000    77.500000    45.200000
H     84.740000    78.050000    43.630000
C     82.720000    78.860000    44.110000
C     82.160000    77.950000    43.000000
H     81.860000    76.960000    43.330000
H     81.320000    78.450000    42.530000
H     82.880000    77.890000    42.190000
C     82.160000    79.950000    44.680000
C     80.780000    80.470000    44.310000
H     80.780000    81.550000    44.140000
C     79.630000    79.760000    44.230000
H     79.560000    78.670000    44.180000
C     78.390000    80.530000    43.860000
C     78.330000    82.000000    43.740000
H     78.570000    82.540000    44.650000
H     79.040000    82.350000    42.990000
H     77.390000    82.390000    43.380000
C     77.310000    79.640000    43.580000
H     77.590000    78.600000    43.750000
C     75.890000    79.950000    43.300000
H     75.710000    80.990000    43.020000
C     74.900000    79.020000    43.200000
H     74.970000    77.970000    43.470000
C     73.520000    79.270000    42.680000
C     73.080000    80.600000    42.200000
H     72.130000    80.730000    41.680000
H     73.080000    81.280000    43.050000
H     73.820000    81.020000    41.530000
C     72.630000    78.200000    42.640000
H     73.150000    77.310000    42.990000
C     71.160000    78.220000    42.290000
H     70.720000    79.210000    42.130000
C     70.350000    77.120000    42.200000
H     70.760000    76.110000    42.300000
C     68.910000    77.190000    41.750000
H     68.510000    78.150000    41.430000
C     68.010000    76.150000    41.650000
C     68.470000    74.680000    41.870000
H     67.910000    74.220000    42.690000
H     68.250000    74.020000    41.020000
H     69.490000    74.630000    42.260000
C     66.590000    76.360000    41.360000
H     66.460000    77.360000    40.930000
C     65.610000    75.470000    41.480000
H     65.800000    74.470000    41.880000
C     64.190000    75.830000    41.010000
H     63.930000    76.620000    40.300000
C     63.080000    75.440000    41.660000
C     63.050000    74.450000    42.770000
H     63.940000    73.820000    42.770000
H     62.910000    74.970000    43.720000
H     62.190000    73.780000    42.710000
C     61.810000    75.890000    41.040000
H     61.910000    76.130000    39.980000
C     60.620000    75.830000    41.660000
H     60.550000    75.400000    42.660000
C     59.240000    76.130000    41.150000
C     58.410000    74.890000    40.700000
C     59.330000    73.800000    40.100000
H     60.160000    73.500000    40.750000
H     58.750000    72.980000    39.690000
H     59.790000    74.310000    39.260000
C     57.800000    74.300000    42.000000
H     56.830000    73.840000    41.810000
H     58.400000    73.530000    42.480000
H     57.550000    75.030000    42.770000
C     57.350000    75.310000    39.710000
H     57.900000    75.690000    38.830000
H     56.750000    74.430000    39.450000
C     56.400000    76.490000    40.260000
H     55.900000    76.220000    41.200000
H     55.710000    76.810000    39.470000
C     57.310000    77.740000    40.510000
H     57.490000    78.170000    39.510000
H     56.830000    78.550000    41.070000
C     58.740000    77.370000    41.060000
C     59.550000    78.630000    41.330000
H     59.230000    79.110000    42.250000
H     60.620000    78.430000    41.370000
H     59.360000    79.360000    40.540000
